voltage-tiling/data/p13u_violations/p13uhs21_1247--p13udt10447/Lines.dss
New Line.l(r:p13udt1521lv-p13ulv82093) Units=km Length=0.012353 bus1=p13udt1521lv.1.2 bus2=p13ulv82093.1.2 switch=n enabled=y phases=2 Linecode=1P_UG_AL_1/0_Brenau_2

New Line.l(r:p13udt1521lv-p13ulv83140) Units=km Length=0.0129155 bus1=p13udt1521lv.1.2 bus2=p13ulv83140.1.2 switch=n enabled=y phases=2 Linecode=1P_UG_AL_1/0_Brenau_2

New Line.l(r:p13udm6769-p13ulv3855) Units=km Length=0.012136700000000002 bus1=p13udm6769.1.2 bus2=p13ulv3855.1.2 switch=n enabled=y phases=2 Linecode=1P_UG_AL_1/0_Brenau_2

New Line.l(r:p13udm6770-p13ulv3856) Units=km Length=0.0107118 bus1=p13udm6770.1.2 bus2=p13ulv3856.1.2 switch=n enabled=y phases=2 Linecode=1P_UG_AL_1/0_Brenau_2

New Line.l(r:p13udm6772-p13ulv22175) Units=km Length=0.00830569 bus1=p13udm6772.1.2 bus2=p13ulv22175.1.2 switch=n enabled=y phases=2 Linecode=1P_UG_AL_1/0_Brenau_2

New Line.l(r:p13udm6770-p13udm6772) Units=km Length=0.0291177 bus1=p13udm6770.1.2 bus2=p13udm6772.1.2 switch=n enabled=y phases=2 Linecode=1P_UG_AL_1/0_Brenau_2

New Line.l(r:p13udm6769-p13udm6770) Units=km Length=0.00979012 bus1=p13udm6769.1.2 bus2=p13udm6770.1.2 switch=n enabled=y phases=2 Linecode=1P_UG_AL_2/0_Converse_2

New Line.l(r:p13udm6769-p13udt1521lv) Units=km Length=0.00979012 bus1=p13udt1521lv.1.2 bus2=p13udm6769.1.2 switch=n enabled=y phases=2 Linecode=1P_UG_AL_4/0_Sweetbriar_2

New Line.l(r:p13udm6774-p13ulv82103) Units=km Length=0.0133346 bus1=p13udm6774.1.2 bus2=p13ulv82103.1.2 switch=n enabled=y phases=2 Linecode=1P_UG_AL_1/0_Brenau_2

New Line.l(r:p13udm6771-p13ulv22160) Units=km Length=0.013038400000000002 bus1=p13udm6771.1.2 bus2=p13ulv22160.1.2 switch=n enabled=y phases=2 Linecode=1P_UG_AL_1/0_Brenau_2

New Line.l(r:p13udm6771-p13ulv83145) Units=km Length=0.0131456 bus1=p13udm6771.1.2 bus2=p13ulv83145.1.2 switch=n enabled=y phases=2 Linecode=1P_UG_AL_1/0_Brenau_2

New Line.l(r:p13udm6777-p13ulv83163) Units=km Length=0.0129951 bus1=p13udm6777.1.2 bus2=p13ulv83163.1.2 switch=n enabled=y phases=2 Linecode=1P_UG_AL_1/0_Brenau_2

New Line.l(r:p13udm6771-p13udm6777) Units=km Length=0.0293799 bus1=p13udm6771.1.2 bus2=p13udm6777.1.2 switch=n enabled=y phases=2 Linecode=1P_UG_AL_1/0_Brenau_2

New Line.l(r:p13udm6771-p13udm6774) Units=km Length=0.00979012 bus1=p13udm6774.1.2 bus2=p13udm6771.1.2 switch=n enabled=y phases=2 Linecode=1P_UG_AL_2/0_Converse_2

New Line.l(r:p13udm6774-p13udt1521lv) Units=km Length=0.00979012 bus1=p13udt1521lv.1.2 bus2=p13udm6774.1.2 switch=n enabled=y phases=2 Linecode=1P_UG_AL_4/0_Sweetbriar_2

New Line.l(r:p13udt1522lv-p13ulv3857) Units=km Length=0.00897878 bus1=p13udt1522lv.1.2 bus2=p13ulv3857.1.2 switch=n enabled=y phases=2 Linecode=1P_OH_AL_2/0_Rucina_2

New Line.l(r:p13udt1522lv-p13ulv22164) Units=km Length=0.0131523 bus1=p13udt1522lv.1.2 bus2=p13ulv22164.1.2 switch=n enabled=y phases=2 Linecode=1P_OH_AL_2/0_Rucina_2

New Line.l(r:p13udt1522lv-p13ulv22165) Units=km Length=0.0151037 bus1=p13udt1522lv.1.2 bus2=p13ulv22165.1.2 switch=n enabled=y phases=2 Linecode=1P_OH_AL_2/0_Rucina_2

New Line.l(r:p13udm6781-p13ulv22166) Units=km Length=0.012840900000000002 bus1=p13udm6781.1.2 bus2=p13ulv22166.1.2 switch=n enabled=y phases=2 Linecode=1P_OH_AL_2/0_Rucina_2

New Line.l(r:p13udm6781-p13ulv22167) Units=km Length=0.0300141 bus1=p13udm6781.1.2 bus2=p13ulv22167.1.2 switch=n enabled=y phases=2 Linecode=1P_OH_AL_4/0_Zuzara_2

New Line.l(r:p13udm6781-p13udt1522lv) Units=km Length=0.0193635 bus1=p13udt1522lv.1.2 bus2=p13udm6781.1.2 switch=n enabled=y phases=2 Linecode=1P_OH_AL_2/0_Rucina_2

New Line.l(r:p13udm6783-p13ulv83116) Units=km Length=0.012873100000000002 bus1=p13udm6783.1.2 bus2=p13ulv83116.1.2 switch=n enabled=y phases=2 Linecode=1P_OH_AL_2/0_Rucina_2

New Line.l(r:p13udm6783-p13udt1522lv) Units=km Length=0.019351 bus1=p13udt1522lv.1.2 bus2=p13udm6783.1.2 switch=n enabled=y phases=2 Linecode=1P_OH_AL_2/0_Rucina_2

New Line.l(r:p13udt1523lv-p13ulv80685) Units=km Length=0.0127265 bus1=p13udt1523lv.1.2 bus2=p13ulv80685.1.2 switch=n enabled=y phases=2 Linecode=1P_UG_AL_1/0_Brenau_2

New Line.l(r:p13udm6785-p13ulv3860) Units=km Length=0.0138482 bus1=p13udm6785.1.2 bus2=p13ulv3860.1.2 switch=n enabled=y phases=2 Linecode=1P_UG_AL_1/0_Brenau_2

New Line.l(r:p13udm6784-p13ulv3859) Units=km Length=0.0131825 bus1=p13udm6784.1.2 bus2=p13ulv3859.1.2 switch=n enabled=y phases=2 Linecode=1P_UG_AL_1/0_Brenau_2

New Line.l(r:p13udm6784-p13ulv78762) Units=km Length=0.0172534 bus1=p13udm6784.1.2 bus2=p13ulv78762.1.2 switch=n enabled=y phases=2 Linecode=1P_UG_AL_1/0_Brenau_2

New Line.l(r:p13udm6786-p13ulv16393) Units=km Length=0.012993900000000001 bus1=p13udm6786.1.2 bus2=p13ulv16393.1.2 switch=n enabled=y phases=2 Linecode=1P_UG_AL_1/0_Brenau_2

New Line.l(r:p13udm6784-p13udm6786) Units=km Length=0.00989626 bus1=p13udm6784.1.2 bus2=p13udm6786.1.2 switch=n enabled=y phases=2 Linecode=1P_UG_AL_1/0_Brenau_2

New Line.l(r:p13udm6784-p13udm6785) Units=km Length=0.00989626 bus1=p13udm6785.1.2 bus2=p13udm6784.1.2 switch=n enabled=y phases=2 Linecode=1P_UG_AL_4/0_Sweetbriar_2

New Line.l(r:p13udm6785-p13udt1523lv) Units=km Length=0.00988382 bus1=p13udt1523lv.1.2 bus2=p13udm6785.1.2 switch=n enabled=y phases=2 Linecode=1P_UG_AL_4/0_Sweetbriar_2

New Line.l(r:p13udm6789-p13ulv80680) Units=km Length=0.012646300000000001 bus1=p13udm6789.1.2 bus2=p13ulv80680.1.2 switch=n enabled=y phases=2 Linecode=1P_UG_AL_1/0_Brenau_2

New Line.l(r:p13udm6789-p13ulv81347) Units=km Length=0.0135654 bus1=p13udm6789.1.2 bus2=p13ulv81347.1.2 switch=n enabled=y phases=2 Linecode=1P_UG_AL_1/0_Brenau_2

New Line.l(r:p13udm6788-p13ulv80676) Units=km Length=0.012162 bus1=p13udm6788.1.2 bus2=p13ulv80676.1.2 switch=n enabled=y phases=2 Linecode=1P_UG_AL_1/0_Brenau_2

New Line.l(r:p13udm6788-p13udm6789) Units=km Length=0.00988668 bus1=p13udm6789.1.2 bus2=p13udm6788.1.2 switch=n enabled=y phases=2 Linecode=1P_UG_AL_1/0_Brenau_2

New Line.l(r:p13udm6789-p13udt1523lv) Units=km Length=0.00989626 bus1=p13udt1523lv.1.2 bus2=p13udm6789.1.2 switch=n enabled=y phases=2 Linecode=1P_UG_AL_4/0_Sweetbriar_2

New Line.l(r:p13udt1524lv-p13ulv3862) Units=km Length=0.0136268 bus1=p13udt1524lv.1.2 bus2=p13ulv3862.1.2 switch=n enabled=y phases=2 Linecode=1P_UG_AL_1/0_Brenau_2

New Line.l(r:p13udm6792-p13ulv3861) Units=km Length=0.0138052 bus1=p13udm6792.1.2 bus2=p13ulv3861.1.2 switch=n enabled=y phases=2 Linecode=1P_UG_AL_1/0_Brenau_2

New Line.l(r:p13udm6792-p13udt1524lv) Units=km Length=0.0299093 bus1=p13udt1524lv.1.2 bus2=p13udm6792.1.2 switch=n enabled=y phases=2 Linecode=1P_UG_AL_1/0_Brenau_2

New Line.l(r:p13udm6796-p13ulv83244) Units=km Length=0.013143 bus1=p13udm6796.1.2 bus2=p13ulv83244.1.2 switch=n enabled=y phases=2 Linecode=1P_UG_AL_1/0_Brenau_2

New Line.l(r:p13udm6795-p13ulv83235) Units=km Length=0.0110383 bus1=p13udm6795.1.2 bus2=p13ulv83235.1.2 switch=n enabled=y phases=2 Linecode=1P_OH_AL_2/0_Rucina_2

New Line.l(r:p13udm6794-p13ulv3863) Units=km Length=0.0130631 bus1=p13udm6794.1.2 bus2=p13ulv3863.1.2 switch=n enabled=y phases=2 Linecode=1P_OH_AL_2/0_Rucina_2

New Line.l(r:p13udm6794-p13udm6795) Units=km Length=0.0591422 bus1=p13udm6795.1.2 bus2=p13udm6794.1.2 switch=n enabled=y phases=2 Linecode=1P_OH_AL_4/0_Zuzara_2

New Line.l(r:p13udm6795-p13udm6796) Units=km Length=0.03966190000000001 bus1=p13udm6796.1.2 bus2=p13udm6795.1.2 switch=n enabled=y phases=2 Linecode=1P_OH_AL_4/0_Zuzara_2

New Line.l(r:p13udm6796-p13udt1524lv) Units=km Length=0.009963630000000001 bus1=p13udt1524lv.1.2 bus2=p13udm6796.1.2 switch=n enabled=y phases=2 Linecode=1P_UG_AL_4/0_Sweetbriar_2

New Line.l(r:p13udt1527lv-p13ulv83179) Units=km Length=0.0167265 bus1=p13udt1527lv.1.2 bus2=p13ulv83179.1.2 switch=n enabled=y phases=2 Linecode=1P_OH_AL_2/0_Rucina_2

New Line.l(r:p13udm6801-p13ulv3867) Units=km Length=0.0154998 bus1=p13udm6801.1.2 bus2=p13ulv3867.1.2 switch=n enabled=y phases=2 Linecode=1P_OH_AL_2/0_Rucina_2

New Line.l(r:p13udm6801-p13udt1527lv) Units=km Length=0.0198464 bus1=p13udt1527lv.1.2 bus2=p13udm6801.1.2 switch=n enabled=y phases=2 Linecode=1P_OH_AL_2/0_Rucina_2

New Line.l(r:p13udt1528lv-p13ulv3868) Units=km Length=0.015152 bus1=p13udt1528lv.1.2 bus2=p13ulv3868.1.2 switch=n enabled=y phases=2 Linecode=1P_OH_AL_2/0_Rucina_2

New Line.l(r:p13udt1529lv-p13ulv3869) Units=km Length=0.0148226 bus1=p13udt1529lv.1.2 bus2=p13ulv3869.1.2 switch=n enabled=y phases=2 Linecode=1P_OH_AL_2/0_Rucina_2

New Line.l(r:p13udt1531lv-p13ulv3872) Units=km Length=0.0138932 bus1=p13udt1531lv.1.2 bus2=p13ulv3872.1.2 switch=n enabled=y phases=2 Linecode=1P_OH_AL_2/0_Rucina_2

New Line.l(r:p13udt1532lv-p13ulv3873) Units=km Length=0.0153957 bus1=p13udt1532lv.1.2 bus2=p13ulv3873.1.2 switch=n enabled=y phases=2 Linecode=1P_OH_AL_2/0_Rucina_2

New Line.l(r:p13udt7267lv-p13ulv16464) Units=km Length=0.0116998 bus1=p13udt7267lv.1.2 bus2=p13ulv16464.1.2 switch=n enabled=y phases=2 Linecode=1P_OH_AL_2/0_Rucina_2

New Line.l(r:p13udt7267lv-p13ulv77206) Units=km Length=0.0133798 bus1=p13udt7267lv.1.2 bus2=p13ulv77206.1.2 switch=n enabled=y phases=2 Linecode=1P_OH_AL_2/0_Rucina_2

New Line.l(r:p13udm31470-p13ulv15987) Units=km Length=0.0131128 bus1=p13udm31470.1.2 bus2=p13ulv15987.1.2 switch=n enabled=y phases=2 Linecode=1P_UG_AL_1/0_Brenau_2

New Line.l(r:p13udm31470-p13udt7267lv) Units=km Length=0.0195767 bus1=p13udt7267lv.1.2 bus2=p13udm31470.1.2 switch=n enabled=y phases=2 Linecode=1P_OH_AL_2/0_Rucina_2

New Line.l(r:p13udm31471-p13ulv16463) Units=km Length=0.0117738 bus1=p13udm31471.1.2 bus2=p13ulv16463.1.2 switch=n enabled=y phases=2 Linecode=1P_OH_AL_2/0_Rucina_2

New Line.l(r:p13udm31471-p13ulv75335) Units=km Length=0.012286300000000002 bus1=p13udm31471.1.2 bus2=p13ulv75335.1.2 switch=n enabled=y phases=2 Linecode=1P_OH_AL_2/0_Rucina_2

New Line.l(r:p13udm31471-p13ulv77219) Units=km Length=0.0300206 bus1=p13udm31471.1.2 bus2=p13ulv77219.1.2 switch=n enabled=y phases=2 Linecode=1P_OH_AL_4/0_Zuzara_2

New Line.l(r:p13udm31471-p13ulv77220) Units=km Length=0.012676 bus1=p13udm31471.1.2 bus2=p13ulv77220.1.2 switch=n enabled=y phases=2 Linecode=1P_OH_AL_2/0_Rucina_2

New Line.l(r:p13udm31471-p13ulv77235) Units=km Length=0.0149116 bus1=p13udm31471.1.2 bus2=p13ulv77235.1.2 switch=n enabled=y phases=2 Linecode=1P_OH_AL_2/0_Rucina_2

New Line.l(r:p13udm31471-p13udt7267lv) Units=km Length=0.0195853 bus1=p13udt7267lv.1.2 bus2=p13udm31471.1.2 switch=n enabled=y phases=2 Linecode=1P_OH_AL_2/0_Rucina_2_7

New Line.l(r:p13udt7268lv-p13ulv15988) Units=km Length=0.0114681 bus1=p13udt7268lv.1.2 bus2=p13ulv15988.1.2 switch=n enabled=y phases=2 Linecode=1P_UG_AL_2/0_Converse_2

New Line.l(r:p13udm31479-p13ulv77143) Units=km Length=0.0145049 bus1=p13udm31479.1.2 bus2=p13ulv77143.1.2 switch=n enabled=y phases=2 Linecode=1P_UG_AL_4/0_Sweetbriar_2

New Line.l(r:p13udm31479-p13udt7268lv) Units=km Length=0.00969376 bus1=p13udt7268lv.1.2 bus2=p13udm31479.1.2 switch=n enabled=y phases=2 Linecode=1P_UG_AL_4/0_Sweetbriar_2

New Line.l(r:p13udm31480-p13ulv77152) Units=km Length=0.013686 bus1=p13udm31480.1.2 bus2=p13ulv77152.1.2 switch=n enabled=y phases=2 Linecode=1P_UG_AL_1/0_Brenau_2

New Line.l(r:p13udm31480-p13udt7268lv) Units=km Length=0.00969881 bus1=p13udt7268lv.1.2 bus2=p13udm31480.1.2 switch=n enabled=y phases=2 Linecode=1P_UG_AL_1/0_Brenau_2

New Line.l(r:p13udt7269lv-p13ulv16439) Units=km Length=0.0151524 bus1=p13udt7269lv.1.2 bus2=p13ulv16439.1.2 switch=n enabled=y phases=2 Linecode=1P_UG_AL_1/0_Brenau_2

New Line.l(r:p13udt7269lv-p13ulv77172) Units=km Length=0.0125775 bus1=p13udt7269lv.1.2 bus2=p13ulv77172.1.2 switch=n enabled=y phases=2 Linecode=1P_UG_AL_4/0_Sweetbriar_2

New Line.l(r:p13udt7269lv-p13ulv77194) Units=km Length=0.034895600000000006 bus1=p13udt7269lv.1.2 bus2=p13ulv77194.1.2 switch=n enabled=y phases=2 Linecode=1P_UG_AL_1/0_Brenau_2

New Line.l(r:p13udt7269lv-p13ulv77197) Units=km Length=0.04846910000000001 bus1=p13udt7269lv.1.2 bus2=p13ulv77197.1.2 switch=n enabled=y phases=2 Linecode=1P_UG_AL_1/0_Brenau_2

New Line.l(r:p13udm31481-p13ulv15989) Units=km Length=0.0277465 bus1=p13udm31481.1.2 bus2=p13ulv15989.1.2 switch=n enabled=y phases=2 Linecode=1P_UG_AL_1/0_Brenau_2

New Line.l(r:p13udm31485-p13ulv77188) Units=km Length=0.00977929 bus1=p13udm31485.1.2 bus2=p13ulv77188.1.2 switch=n enabled=y phases=2 Linecode=1P_UG_AL_1/0_Brenau_2

New Line.l(r:p13udm31481-p13udm31485) Units=km Length=0.0290878 bus1=p13udm31481.1.2 bus2=p13udm31485.1.2 switch=n enabled=y phases=2 Linecode=1P_UG_AL_1/0_Brenau_2

New Line.l(r:p13udm31481-p13udt7269lv) Units=km Length=0.019383900000000003 bus1=p13udt7269lv.1.2 bus2=p13udm31481.1.2 switch=n enabled=y phases=2 Linecode=1P_UG_AL_1/0_Brenau_2

New Line.l(r:p13udm31483-p13ulv77159) Units=km Length=0.0146409 bus1=p13udm31483.1.2 bus2=p13ulv77159.1.2 switch=n enabled=y phases=2 Linecode=1P_UG_AL_1/0_Brenau_2

New Line.l(r:p13udm31483-p13udt7269lv) Units=km Length=0.0387816 bus1=p13udt7269lv.1.2 bus2=p13udm31483.1.2 switch=n enabled=y phases=2 Linecode=1P_UG_AL_1/0_Brenau_2

New Line.l(r:p13udt7461lv-p13ulv78789) Units=km Length=0.011537 bus1=p13udt7461lv.1.2 bus2=p13ulv78789.1.2 switch=n enabled=y phases=2 Linecode=1P_UG_AL_1/0_Brenau_2

New Line.l(r:p13udm32295-p13ulv16384) Units=km Length=0.0453824 bus1=p13udm32295.1.2 bus2=p13ulv16384.1.2 switch=n enabled=y phases=2 Linecode=1P_UG_AL_1/0_Brenau_2

New Line.l(r:p13udm32294-p13ulv16382) Units=km Length=0.0145562 bus1=p13udm32294.1.2 bus2=p13ulv16382.1.2 switch=n enabled=y phases=2 Linecode=1P_UG_AL_1/0_Brenau_2

New Line.l(r:p13udm32294-p13udm32295) Units=km Length=0.009479860000000001 bus1=p13udm32295.1.2 bus2=p13udm32294.1.2 switch=n enabled=y phases=2 Linecode=1P_UG_AL_1/0_Brenau_2

New Line.l(r:p13udm32295-p13udt7461lv) Units=km Length=0.009470300000000001 bus1=p13udt7461lv.1.2 bus2=p13udm32295.1.2 switch=n enabled=y phases=2 Linecode=1P_UG_AL_1/0_Brenau_2

New Line.l(r:p13udm32296-p13ulv78786) Units=km Length=0.0152906 bus1=p13udm32296.1.2 bus2=p13ulv78786.1.2 switch=n enabled=y phases=2 Linecode=1P_UG_AL_1/0_Brenau_2

New Line.l(r:p13udm32296-p13ulv78795) Units=km Length=0.011805600000000001 bus1=p13udm32296.1.2 bus2=p13ulv78795.1.2 switch=n enabled=y phases=2 Linecode=1P_UG_AL_1/0_Brenau_2

New Line.l(r:p13udm32293-p13ulv16373) Units=km Length=0.0146095 bus1=p13udm32293.1.2 bus2=p13ulv16373.1.2 switch=n enabled=y phases=2 Linecode=1P_UG_AL_1/0_Brenau_2

New Line.l(r:p13udm32293-p13udm32296) Units=km Length=0.009479860000000001 bus1=p13udm32296.1.2 bus2=p13udm32293.1.2 switch=n enabled=y phases=2 Linecode=1P_UG_AL_1/0_Brenau_2

New Line.l(r:p13udm32296-p13udt7461lv) Units=km Length=0.009479860000000001 bus1=p13udt7461lv.1.2 bus2=p13udm32296.1.2 switch=n enabled=y phases=2 Linecode=1P_UG_AL_4/0_Sweetbriar_2

New Line.l(r:p13udt7463lv-p13ulv16378) Units=km Length=0.013646000000000002 bus1=p13udt7463lv.1.2 bus2=p13ulv16378.1.2 switch=n enabled=y phases=2 Linecode=1P_UG_AL_1/0_Brenau_2

New Line.l(r:p13udm32300-p13ulv16375) Units=km Length=0.027943 bus1=p13udm32300.1.2 bus2=p13ulv16375.1.2 switch=n enabled=y phases=2 Linecode=1P_UG_AL_2/0_Converse_2

New Line.l(r:p13udm32300-p13udt7463lv) Units=km Length=0.00925728 bus1=p13udt7463lv.1.2 bus2=p13udm32300.1.2 switch=n enabled=y phases=2 Linecode=1P_UG_AL_2/0_Converse_2

New Line.l(r:p13udm32301-p13ulv16377) Units=km Length=0.0100376 bus1=p13udm32301.1.2 bus2=p13ulv16377.1.2 switch=n enabled=y phases=2 Linecode=1P_UG_AL_4/0_Sweetbriar_2

New Line.l(r:p13udm32301-p13udt7463lv) Units=km Length=0.0185211 bus1=p13udt7463lv.1.2 bus2=p13udm32301.1.2 switch=n enabled=y phases=2 Linecode=1P_UG_AL_4/0_Sweetbriar_2

New Line.l(r:p13udt7464lv-p13ulv78763) Units=km Length=0.0143603 bus1=p13udt7464lv.1.2 bus2=p13ulv78763.1.2 switch=n enabled=y phases=2 Linecode=1P_UG_AL_1/0_Brenau_2

New Line.l(r:p13udm32303-p13ulv16376) Units=km Length=0.014324700000000001 bus1=p13udm32303.1.2 bus2=p13ulv16376.1.2 switch=n enabled=y phases=2 Linecode=1P_UG_AL_1/0_Brenau_2

New Line.l(r:p13udm32303-p13ulv16381) Units=km Length=0.0113457 bus1=p13udm32303.1.2 bus2=p13ulv16381.1.2 switch=n enabled=y phases=2 Linecode=1P_UG_AL_1/0_Brenau_2

New Line.l(r:p13udm32307-p13ulv80664) Units=km Length=0.0107972 bus1=p13udm32307.1.2 bus2=p13ulv80664.1.2 switch=n enabled=y phases=2 Linecode=1P_UG_AL_1/0_Brenau_2

New Line.l(r:p13udm32303-p13udm32307) Units=km Length=0.0189502 bus1=p13udm32303.1.2 bus2=p13udm32307.1.2 switch=n enabled=y phases=2 Linecode=1P_UG_AL_1/0_Brenau_2

New Line.l(r:p13udm32303-p13udt7464lv) Units=km Length=0.00947325 bus1=p13udt7464lv.1.2 bus2=p13udm32303.1.2 switch=n enabled=y phases=2 Linecode=1P_UG_AL_4/0_Sweetbriar_2

New Line.l(r:p13udm32308-p13ulv80679) Units=km Length=0.0156127 bus1=p13udm32308.1.2 bus2=p13ulv80679.1.2 switch=n enabled=y phases=2 Linecode=1P_UG_AL_1/0_Brenau_2

New Line.l(r:p13udm32305-p13ulv16383) Units=km Length=0.0140291 bus1=p13udm32305.1.2 bus2=p13ulv16383.1.2 switch=n enabled=y phases=2 Linecode=1P_UG_AL_1/0_Brenau_2

New Line.l(r:p13udm32305-p13udm32308) Units=km Length=0.009479860000000001 bus1=p13udm32308.1.2 bus2=p13udm32305.1.2 switch=n enabled=y phases=2 Linecode=1P_UG_AL_1/0_Brenau_2

New Line.l(r:p13udm32308-p13udt7464lv) Units=km Length=0.009479860000000001 bus1=p13udt7464lv.1.2 bus2=p13udm32308.1.2 switch=n enabled=y phases=2 Linecode=1P_UG_AL_1/0_Brenau_2

New Line.l(r:p13udt7465lv-p13ulv16380) Units=km Length=0.0130593 bus1=p13udt7465lv.1.2 bus2=p13ulv16380.1.2 switch=n enabled=y phases=2 Linecode=1P_UG_AL_1/0_Brenau_2

New Line.l(r:p13udt7465lv-p13ulv81345) Units=km Length=0.00979165 bus1=p13udt7465lv.1.2 bus2=p13ulv81345.1.2 switch=n enabled=y phases=2 Linecode=1P_UG_AL_1/0_Brenau_2

New Line.l(r:p13udm32309-p13ulv16379) Units=km Length=0.0114501 bus1=p13udm32309.1.2 bus2=p13ulv16379.1.2 switch=n enabled=y phases=2 Linecode=1P_UG_AL_1/0_Brenau_2

New Line.l(r:p13udm32309-p13udt7465lv) Units=km Length=0.00988668 bus1=p13udt7465lv.1.2 bus2=p13udm32309.1.2 switch=n enabled=y phases=2 Linecode=1P_UG_AL_1/0_Brenau_2

New Line.l(r:p13udt7466lv-p13ulv16385) Units=km Length=0.0108557 bus1=p13udt7466lv.1.2 bus2=p13ulv16385.1.2 switch=n enabled=y phases=2 Linecode=1P_UG_AL_2/0_Converse_2

New Line.l(r:p13udt7466lv-p13ulv78820) Units=km Length=0.0104399 bus1=p13udt7466lv.1.2 bus2=p13ulv78820.1.2 switch=n enabled=y phases=2 Linecode=1P_UG_AL_1/0_Brenau_2

New Line.l(r:p13udm32313-p13ulv16386) Units=km Length=0.0133736 bus1=p13udm32313.1.2 bus2=p13ulv16386.1.2 switch=n enabled=y phases=2 Linecode=1P_UG_AL_1/0_Brenau_2

New Line.l(r:p13udm32313-p13ulv16387) Units=km Length=0.00848764 bus1=p13udm32313.1.2 bus2=p13ulv16387.1.2 switch=n enabled=y phases=2 Linecode=1P_UG_AL_1/0_Brenau_2

New Line.l(r:p13udm32313-p13udt7466lv) Units=km Length=0.00930499 bus1=p13udt7466lv.1.2 bus2=p13udm32313.1.2 switch=n enabled=y phases=2 Linecode=1P_UG_AL_1/0_Brenau_2

New Line.l(r:p13udm32320-p13ulv80666) Units=km Length=0.0138902 bus1=p13udm32320.1.2 bus2=p13ulv80666.1.2 switch=n enabled=y phases=2 Linecode=1P_UG_AL_1/0_Brenau_2

New Line.l(r:p13udm32319-p13ulv80646) Units=km Length=0.0142747 bus1=p13udm32319.1.2 bus2=p13ulv80646.1.2 switch=n enabled=y phases=2 Linecode=1P_UG_AL_1/0_Brenau_2

New Line.l(r:p13udm32323-p13ulv81350) Units=km Length=0.0385793 bus1=p13udm32323.1.2 bus2=p13ulv81350.1.2 switch=n enabled=y phases=2 Linecode=1P_UG_AL_1/0_Brenau_2

New Line.l(r:p13udm32322-p13ulv81341) Units=km Length=0.014075600000000002 bus1=p13udm32322.1.2 bus2=p13ulv81341.1.2 switch=n enabled=y phases=2 Linecode=1P_UG_AL_4/0_Sweetbriar_2

New Line.l(r:p13udm32324-p13ulv81360) Units=km Length=0.0142719 bus1=p13udm32324.1.2 bus2=p13ulv81360.1.2 switch=n enabled=y phases=2 Linecode=1P_UG_AL_1/0_Brenau_2

New Line.l(r:p13udm32322-p13udm32324) Units=km Length=0.00984169 bus1=p13udm32322.1.2 bus2=p13udm32324.1.2 switch=n enabled=y phases=2 Linecode=1P_UG_AL_1/0_Brenau_2

New Line.l(r:p13udm32322-p13udm32323) Units=km Length=0.00982923 bus1=p13udm32323.1.2 bus2=p13udm32322.1.2 switch=n enabled=y phases=2 Linecode=1P_UG_AL_4/0_Sweetbriar_2

New Line.l(r:p13udm32319-p13udm32323) Units=km Length=0.00984169 bus1=p13udm32319.1.2 bus2=p13udm32323.1.2 switch=n enabled=y phases=2 Linecode=1P_UG_AL_4/0_Sweetbriar_2

New Line.l(r:p13udm32319-p13udm32320) Units=km Length=0.00982923 bus1=p13udm32320.1.2 bus2=p13udm32319.1.2 switch=n enabled=y phases=2 Linecode=1P_UG_AL_4/0_Sweetbriar_2

New Line.l(r:p13udm32320-p13udt7467lv) Units=km Length=0.00983212 bus1=p13udt7467lv.1.2 bus2=p13udm32320.1.2 switch=n enabled=y phases=2 Linecode=1P_UG_AL_4/0_Sweetbriar_2

New Line.l(r:p13udm32321-p13ulv80677) Units=km Length=0.00958282 bus1=p13udm32321.1.2 bus2=p13ulv80677.1.2 switch=n enabled=y phases=2 Linecode=1P_UG_AL_1/0_Brenau_2

New Line.l(r:p13udm32318-p13ulv78773) Units=km Length=0.00970452 bus1=p13udm32318.1.2 bus2=p13ulv78773.1.2 switch=n enabled=y phases=2 Linecode=1P_UG_AL_1/0_Brenau_2

New Line.l(r:p13udm32317-p13ulv16389) Units=km Length=0.00772385 bus1=p13udm32317.1.2 bus2=p13ulv16389.1.2 switch=n enabled=y phases=2 Linecode=1P_UG_AL_1/0_Brenau_2

New Line.l(r:p13udm32316-p13ulv16388) Units=km Length=0.012616 bus1=p13udm32316.1.2 bus2=p13ulv16388.1.2 switch=n enabled=y phases=2 Linecode=1P_UG_AL_1/0_Brenau_2

New Line.l(r:p13udm32316-p13udm32317) Units=km Length=0.00930798 bus1=p13udm32317.1.2 bus2=p13udm32316.1.2 switch=n enabled=y phases=2 Linecode=1P_UG_AL_1/0_Brenau_2

New Line.l(r:p13udm32317-p13udm32318) Units=km Length=0.00930798 bus1=p13udm32318.1.2 bus2=p13udm32317.1.2 switch=n enabled=y phases=2 Linecode=1P_UG_AL_1/0_Brenau_2

New Line.l(r:p13udm32318-p13udm32321) Units=km Length=0.0284968 bus1=p13udm32321.1.2 bus2=p13udm32318.1.2 switch=n enabled=y phases=2 Linecode=1P_UG_AL_2/0_Converse_2

New Line.l(r:p13udm32321-p13udt7467lv) Units=km Length=0.0295547 bus1=p13udt7467lv.1.2 bus2=p13udm32321.1.2 switch=n enabled=y phases=2 Linecode=1P_UG_AL_4/0_Sweetbriar_2

New Line.l(r:p13udt7468lv-p13ulv16391) Units=km Length=0.0130139 bus1=p13udt7468lv.1.2 bus2=p13ulv16391.1.2 switch=n enabled=y phases=2 Linecode=1P_UG_AL_1/0_Brenau_2

New Line.l(r:p13udt7468lv-p13ulv78785) Units=km Length=0.0349062 bus1=p13udt7468lv.1.2 bus2=p13ulv78785.1.2 switch=n enabled=y phases=2 Linecode=1P_UG_AL_1/0_Brenau_2

New Line.l(r:p13udt7468lv-p13ulv80660) Units=km Length=0.0118063 bus1=p13udt7468lv.1.2 bus2=p13ulv80660.1.2 switch=n enabled=y phases=2 Linecode=1P_UG_AL_1/0_Brenau_2

New Line.l(r:p13udm32325-p13ulv16390) Units=km Length=0.010212900000000002 bus1=p13udm32325.1.2 bus2=p13ulv16390.1.2 switch=n enabled=y phases=2 Linecode=1P_UG_AL_1/0_Brenau_2

New Line.l(r:p13udm32325-p13ulv80662) Units=km Length=0.0103189 bus1=p13udm32325.1.2 bus2=p13ulv80662.1.2 switch=n enabled=y phases=2 Linecode=1P_UG_AL_1/0_Brenau_2

New Line.l(r:p13udm32325-p13udt7468lv) Units=km Length=0.00989626 bus1=p13udt7468lv.1.2 bus2=p13udm32325.1.2 switch=n enabled=y phases=2 Linecode=1P_UG_AL_1/0_Brenau_2

New Line.l(r:p13udm32329-p13ulv78767) Units=km Length=0.012826700000000002 bus1=p13udm32329.1.2 bus2=p13ulv78767.1.2 switch=n enabled=y phases=2 Linecode=1P_UG_AL_1/0_Brenau_2

New Line.l(r:p13udm32327-p13ulv16392) Units=km Length=0.0144588 bus1=p13udm32327.1.2 bus2=p13ulv16392.1.2 switch=n enabled=y phases=2 Linecode=1P_UG_AL_1/0_Brenau_2

New Line.l(r:p13udm32327-p13ulv78765) Units=km Length=0.0163719 bus1=p13udm32327.1.2 bus2=p13ulv78765.1.2 switch=n enabled=y phases=2 Linecode=1P_UG_AL_1/0_Brenau_2

New Line.l(r:p13udm32327-p13udm32329) Units=km Length=0.00989626 bus1=p13udm32329.1.2 bus2=p13udm32327.1.2 switch=n enabled=y phases=2 Linecode=1P_UG_AL_1/0_Brenau_2

New Line.l(r:p13udm32329-p13udt7468lv) Units=km Length=0.00988382 bus1=p13udt7468lv.1.2 bus2=p13udm32329.1.2 switch=n enabled=y phases=2 Linecode=1P_UG_AL_4/0_Sweetbriar_2

New Line.l(r:p13udt7470lv-p13ulv80673) Units=km Length=0.0139438 bus1=p13udt7470lv.1.2 bus2=p13ulv80673.1.2 switch=n enabled=y phases=2 Linecode=1P_UG_AL_1/0_Brenau_2

New Line.l(r:p13udm32334-p13ulv16395) Units=km Length=0.0157081 bus1=p13udm32334.1.2 bus2=p13ulv16395.1.2 switch=n enabled=y phases=2 Linecode=1P_UG_AL_1/0_Brenau_2

New Line.l(r:p13udm32334-p13ulv78760) Units=km Length=0.012949 bus1=p13udm32334.1.2 bus2=p13ulv78760.1.2 switch=n enabled=y phases=2 Linecode=1P_UG_AL_1/0_Brenau_2

New Line.l(r:p13udm32339-p13ulv80675) Units=km Length=0.0435256 bus1=p13udm32339.1.2 bus2=p13ulv80675.1.2 switch=n enabled=y phases=2 Linecode=1P_UG_AL_1/0_Brenau_2

New Line.l(r:p13udm32334-p13udm32339) Units=km Length=0.00855641 bus1=p13udm32334.1.2 bus2=p13udm32339.1.2 switch=n enabled=y phases=2 Linecode=1P_UG_AL_1/0_Brenau_2

New Line.l(r:p13udm32334-p13udt7470lv) Units=km Length=0.008544 bus1=p13udt7470lv.1.2 bus2=p13udm32334.1.2 switch=n enabled=y phases=2 Linecode=1P_UG_AL_4/0_Sweetbriar_2

New Line.l(r:p13udm32335-p13ulv16396) Units=km Length=0.0149101 bus1=p13udm32335.1.2 bus2=p13ulv16396.1.2 switch=n enabled=y phases=2 Linecode=1P_UG_AL_1/0_Brenau_2

New Line.l(r:p13udm32335-p13ulv80665) Units=km Length=0.0148995 bus1=p13udm32335.1.2 bus2=p13ulv80665.1.2 switch=n enabled=y phases=2 Linecode=1P_UG_AL_1/0_Brenau_2

New Line.l(r:p13udm32335-p13udt7470lv) Units=km Length=0.008544 bus1=p13udt7470lv.1.2 bus2=p13udm32335.1.2 switch=n enabled=y phases=2 Linecode=1P_UG_AL_1/0_Brenau_2

New Line.l(r:p13udt7471lv-p13ulv16397) Units=km Length=0.00965238 bus1=p13udt7471lv.1.2 bus2=p13ulv16397.1.2 switch=n enabled=y phases=2 Linecode=1P_OH_AL_2/0_Rucina_2

New Line.l(r:p13udm32341-p13ulv16399) Units=km Length=0.010748100000000002 bus1=p13udm32341.1.2 bus2=p13ulv16399.1.2 switch=n enabled=y phases=2 Linecode=1P_OH_AL_2/0_Rucina_2

New Line.l(r:p13udm32341-p13udt7471lv) Units=km Length=0.0173535 bus1=p13udt7471lv.1.2 bus2=p13udm32341.1.2 switch=n enabled=y phases=2 Linecode=1P_OH_AL_2/0_Rucina_2

New Line.l(r:p13udm32342-p13ulv78906) Units=km Length=0.00963874 bus1=p13udm32342.1.2 bus2=p13ulv78906.1.2 switch=n enabled=y phases=2 Linecode=1P_OH_AL_2/0_Rucina_2

New Line.l(r:p13udm32342-p13udt7471lv) Units=km Length=0.0173395 bus1=p13udt7471lv.1.2 bus2=p13udm32342.1.2 switch=n enabled=y phases=2 Linecode=1P_OH_AL_2/0_Rucina_2

New Line.l(r:p13udt7472lv-p13ulv16398) Units=km Length=0.015059 bus1=p13udt7472lv.1.2 bus2=p13ulv16398.1.2 switch=n enabled=y phases=2 Linecode=1P_OH_AL_2/0_Rucina_2

New Line.l(r:p13udm32344-p13ulv78930) Units=km Length=0.0108052 bus1=p13udm32344.1.2 bus2=p13ulv78930.1.2 switch=n enabled=y phases=2 Linecode=1P_OH_AL_2/0_Rucina_2

New Line.l(r:p13udm32344-p13udt7472lv) Units=km Length=0.0180854 bus1=p13udt7472lv.1.2 bus2=p13udm32344.1.2 switch=n enabled=y phases=2 Linecode=1P_OH_AL_2/0_Rucina_2

New Line.l(r:p13udt7477lv-p13ulv78800) Units=km Length=0.0301218 bus1=p13udt7477lv.1.2 bus2=p13ulv78800.1.2 switch=n enabled=y phases=2 Linecode=1P_OH_AL_4/0_Zuzara_2

New Line.l(r:p13udt7477lv-p13ulv78814) Units=km Length=0.0141728 bus1=p13udt7477lv.1.2 bus2=p13ulv78814.1.2 switch=n enabled=y phases=2 Linecode=1P_OH_AL_2/0_Rucina_2

New Line.l(r:p13udt7477lv-p13ulv78843) Units=km Length=0.0118082 bus1=p13udt7477lv.1.2 bus2=p13ulv78843.1.2 switch=n enabled=y phases=2 Linecode=1P_OH_AL_2/0_Rucina_2

New Line.l(r:p13udm32363-p13ulv16408) Units=km Length=0.0135883 bus1=p13udm32363.1.2 bus2=p13ulv16408.1.2 switch=n enabled=y phases=2 Linecode=1P_OH_AL_2/0_Rucina_2

New Line.l(r:p13udm32363-p13ulv78808) Units=km Length=0.0121491 bus1=p13udm32363.1.2 bus2=p13ulv78808.1.2 switch=n enabled=y phases=2 Linecode=1P_OH_AL_2/0_Rucina_2

New Line.l(r:p13udm32363-p13ulv78842) Units=km Length=0.0135812 bus1=p13udm32363.1.2 bus2=p13ulv78842.1.2 switch=n enabled=y phases=2 Linecode=1P_OH_AL_2/0_Rucina_2

New Line.l(r:p13udm32363-p13ulv78857) Units=km Length=0.0298885 bus1=p13udm32363.1.2 bus2=p13ulv78857.1.2 switch=n enabled=y phases=2 Linecode=1P_OH_AL_4/0_Zuzara_2

New Line.l(r:p13udm32363-p13udt7477lv) Units=km Length=0.0178079 bus1=p13udt7477lv.1.2 bus2=p13udm32363.1.2 switch=n enabled=y phases=2 Linecode=1P_OH_AL_2/0_Rucina_2

New Line.l(r:p13udm32366-p13ulv78813) Units=km Length=0.011822700000000002 bus1=p13udm32366.1.2 bus2=p13ulv78813.1.2 switch=n enabled=y phases=2 Linecode=1P_OH_AL_2/0_Rucina_2

New Line.l(r:p13udm32366-p13ulv78840) Units=km Length=0.011629900000000002 bus1=p13udm32366.1.2 bus2=p13ulv78840.1.2 switch=n enabled=y phases=2 Linecode=1P_OH_AL_2/0_Rucina_2

New Line.l(r:p13udm32366-p13ulv78859) Units=km Length=0.030799600000000003 bus1=p13udm32366.1.2 bus2=p13ulv78859.1.2 switch=n enabled=y phases=2 Linecode=1P_OH_AL_4/0_Zuzara_2

New Line.l(r:p13udm32362-p13ulv16407) Units=km Length=0.011594400000000001 bus1=p13udm32362.1.2 bus2=p13ulv16407.1.2 switch=n enabled=y phases=2 Linecode=1P_OH_AL_2/0_Rucina_2

New Line.l(r:p13udm32362-p13udm32366) Units=km Length=0.0178079 bus1=p13udm32366.1.2 bus2=p13udm32362.1.2 switch=n enabled=y phases=2 Linecode=1P_OH_AL_2/0_Rucina_2

New Line.l(r:p13udm32366-p13udt7477lv) Units=km Length=0.0177976 bus1=p13udt7477lv.1.2 bus2=p13udm32366.1.2 switch=n enabled=y phases=2 Linecode=1P_OH_AL_2/0_Rucina_2

New Line.l(r:p13udt7478lv-p13ulv16410) Units=km Length=0.0111041 bus1=p13udt7478lv.1.2 bus2=p13ulv16410.1.2 switch=n enabled=y phases=2 Linecode=1P_OH_AL_2/0_Rucina_2

New Line.l(r:p13udt7478lv-p13ulv78787) Units=km Length=0.0493042 bus1=p13udt7478lv.1.2 bus2=p13ulv78787.1.2 switch=n enabled=y phases=2 Linecode=1P_OH_AL_4/0_Zuzara_2

New Line.l(r:p13udt7478lv-p13ulv78811) Units=km Length=0.0150008 bus1=p13udt7478lv.1.2 bus2=p13ulv78811.1.2 switch=n enabled=y phases=2 Linecode=1P_OH_AL_2/0_Rucina_2

New Line.l(r:p13udm32373-p13ulv16409) Units=km Length=0.0103419 bus1=p13udm32373.1.2 bus2=p13ulv16409.1.2 switch=n enabled=y phases=2 Linecode=1P_OH_AL_2/0_Rucina_2

New Line.l(r:p13udm32373-p13ulv78794) Units=km Length=0.042359 bus1=p13udm32373.1.2 bus2=p13ulv78794.1.2 switch=n enabled=y phases=2 Linecode=1P_OH_AL_4/0_Zuzara_2

New Line.l(r:p13udm32373-p13ulv78819) Units=km Length=0.0136635 bus1=p13udm32373.1.2 bus2=p13ulv78819.1.2 switch=n enabled=y phases=2 Linecode=1P_OH_AL_2/0_Rucina_2

New Line.l(r:p13udm32373-p13ulv78822) Units=km Length=0.0130582 bus1=p13udm32373.1.2 bus2=p13ulv78822.1.2 switch=n enabled=y phases=2 Linecode=1P_OH_AL_2/0_Rucina_2

New Line.l(r:p13udm32373-p13udt7478lv) Units=km Length=0.0178079 bus1=p13udt7478lv.1.2 bus2=p13udm32373.1.2 switch=n enabled=y phases=2 Linecode=1P_OH_AL_2/0_Rucina_2

New Line.l(r:p13udm32376-p13ulv78792) Units=km Length=0.045452 bus1=p13udm32376.1.2 bus2=p13ulv78792.1.2 switch=n enabled=y phases=2 Linecode=1P_OH_AL_4/0_Zuzara_2

New Line.l(r:p13udm32376-p13ulv78816) Units=km Length=0.0137773 bus1=p13udm32376.1.2 bus2=p13ulv78816.1.2 switch=n enabled=y phases=2 Linecode=1P_OH_AL_2/0_Rucina_2

New Line.l(r:p13udm32378-p13ulv78803) Units=km Length=0.0340771 bus1=p13udm32378.1.2 bus2=p13ulv78803.1.2 switch=n enabled=y phases=2 Linecode=1P_UG_AL_1/0_Brenau_2

New Line.l(r:p13udm32378-p13ulv78809) Units=km Length=0.0137255 bus1=p13udm32378.1.2 bus2=p13ulv78809.1.2 switch=n enabled=y phases=2 Linecode=1P_UG_AL_1/0_Brenau_2

New Line.l(r:p13udm32376-p13udm32378) Units=km Length=0.0177979 bus1=p13udm32376.1.2 bus2=p13udm32378.1.2 switch=n enabled=y phases=2 Linecode=1P_OH_AL_2/0_Rucina_2

New Line.l(r:p13udm32376-p13udt7478lv) Units=km Length=0.0178076 bus1=p13udt7478lv.1.2 bus2=p13udm32376.1.2 switch=n enabled=y phases=2 Linecode=1P_OH_AL_2/0_Rucina_2

New Line.l(r:p13udt7479lv-p13ulv16411) Units=km Length=0.0104654 bus1=p13udt7479lv.1.2 bus2=p13ulv16411.1.2 switch=n enabled=y phases=2 Linecode=1P_UG_AL_1/0_Brenau_2

New Line.l(r:p13udt7479lv-p13ulv78845) Units=km Length=0.011676800000000001 bus1=p13udt7479lv.1.2 bus2=p13ulv78845.1.2 switch=n enabled=y phases=2 Linecode=1P_UG_AL_1/0_Brenau_2

New Line.l(r:p13udm32385-p13ulv78812) Units=km Length=0.013159 bus1=p13udm32385.1.2 bus2=p13ulv78812.1.2 switch=n enabled=y phases=2 Linecode=1P_OH_AL_2/0_Rucina_2

New Line.l(r:p13udm32385-p13udt7479lv) Units=km Length=0.0370976 bus1=p13udt7479lv.1.2 bus2=p13udm32385.1.2 switch=n enabled=y phases=2 Linecode=1P_OH_AL_4/0_Zuzara_2

New Line.l(r:p13udm32387-p13ulv78858) Units=km Length=0.0134221 bus1=p13udm32387.1.2 bus2=p13ulv78858.1.2 switch=n enabled=y phases=2 Linecode=1P_UG_AL_1/0_Brenau_2

New Line.l(r:p13udm32388-p13ulv78862) Units=km Length=0.00933872 bus1=p13udm32388.1.2 bus2=p13ulv78862.1.2 switch=n enabled=y phases=2 Linecode=1P_UG_AL_1/0_Brenau_2

New Line.l(r:p13udm32387-p13udm32388) Units=km Length=0.00965419 bus1=p13udm32387.1.2 bus2=p13udm32388.1.2 switch=n enabled=y phases=2 Linecode=1P_UG_AL_1/0_Brenau_2

New Line.l(r:p13udm32387-p13udt7479lv) Units=km Length=0.00964556 bus1=p13udt7479lv.1.2 bus2=p13udm32387.1.2 switch=n enabled=y phases=2 Linecode=1P_UG_AL_1/0_Brenau_2

New Line.l(r:p13udt7480lv-p13ulv78894) Units=km Length=0.00983323 bus1=p13udt7480lv.1.2 bus2=p13ulv78894.1.2 switch=n enabled=y phases=2 Linecode=1P_UG_AL_4/0_Sweetbriar_2

New Line.l(r:p13udm32389-p13ulv16412) Units=km Length=0.014220000000000002 bus1=p13udm32389.1.2 bus2=p13ulv16412.1.2 switch=n enabled=y phases=2 Linecode=1P_UG_AL_1/0_Brenau_2

New Line.l(r:p13udm32389-p13udt7480lv) Units=km Length=0.00944958 bus1=p13udt7480lv.1.2 bus2=p13udm32389.1.2 switch=n enabled=y phases=2 Linecode=1P_UG_AL_1/0_Brenau_2

New Line.l(r:p13udm32390-p13ulv16423) Units=km Length=0.00948205 bus1=p13udm32390.1.2 bus2=p13ulv16423.1.2 switch=n enabled=y phases=2 Linecode=1P_UG_AL_1/0_Brenau_2

New Line.l(r:p13udm32390-p13udt7480lv) Units=km Length=0.0189026 bus1=p13udt7480lv.1.2 bus2=p13udm32390.1.2 switch=n enabled=y phases=2 Linecode=1P_UG_AL_1/0_Brenau_2

New Line.l(r:p13udm32392-p13ulv16413) Units=km Length=0.0142337 bus1=p13udm32392.1.2 bus2=p13ulv16413.1.2 switch=n enabled=y phases=2 Linecode=1P_UG_AL_1/0_Brenau_2

New Line.l(r:p13udm32392-p13udt7481lv) Units=km Length=0.00959196 bus1=p13udt7481lv.1.2 bus2=p13udm32392.1.2 switch=n enabled=y phases=2 Linecode=1P_UG_AL_1/0_Brenau_2

New Line.l(r:p13udm32393-p13ulv78916) Units=km Length=0.0137863 bus1=p13udm32393.1.2 bus2=p13ulv78916.1.2 switch=n enabled=y phases=2 Linecode=1P_UG_AL_4/0_Sweetbriar_2

New Line.l(r:p13udm32393-p13udt7481lv) Units=km Length=0.00958337 bus1=p13udt7481lv.1.2 bus2=p13udm32393.1.2 switch=n enabled=y phases=2 Linecode=1P_UG_AL_4/0_Sweetbriar_2

New Line.l(r:p13udt7486lv-p13ulv78861) Units=km Length=0.0118869 bus1=p13udt7486lv.1.2 bus2=p13ulv78861.1.2 switch=n enabled=y phases=2 Linecode=1P_UG_AL_1/0_Brenau_2

New Line.l(r:p13udm32402-p13ulv16420) Units=km Length=0.0111322 bus1=p13udm32402.1.2 bus2=p13ulv16420.1.2 switch=n enabled=y phases=2 Linecode=1P_UG_AL_4/0_Sweetbriar_2

New Line.l(r:p13udm32402-p13udt7486lv) Units=km Length=0.00964556 bus1=p13udt7486lv.1.2 bus2=p13udm32402.1.2 switch=n enabled=y phases=2 Linecode=1P_UG_AL_4/0_Sweetbriar_2

New Line.l(r:p13udm32404-p13ulv78869) Units=km Length=0.013201800000000001 bus1=p13udm32404.1.2 bus2=p13ulv78869.1.2 switch=n enabled=y phases=2 Linecode=1P_UG_AL_1/0_Brenau_2

New Line.l(r:p13udm32404-p13udt7486lv) Units=km Length=0.00965419 bus1=p13udt7486lv.1.2 bus2=p13udm32404.1.2 switch=n enabled=y phases=2 Linecode=1P_UG_AL_1/0_Brenau_2

New Line.l(r:p13udt7487lv-p13ulv16422) Units=km Length=0.0106305 bus1=p13udt7487lv.1.2 bus2=p13ulv16422.1.2 switch=n enabled=y phases=2 Linecode=1P_OH_AL_2/0_Rucina_2

New Line.l(r:p13udt7487lv-p13ulv78873) Units=km Length=0.0432869 bus1=p13udt7487lv.1.2 bus2=p13ulv78873.1.2 switch=n enabled=y phases=2 Linecode=1P_OH_AL_4/0_Zuzara_2

New Line.l(r:p13udm32405-p13ulv16421) Units=km Length=0.009694130000000002 bus1=p13udm32405.1.2 bus2=p13ulv16421.1.2 switch=n enabled=y phases=2 Linecode=1P_OH_AL_2/0_Rucina_2

New Line.l(r:p13udm32405-p13ulv78868) Units=km Length=0.0388035 bus1=p13udm32405.1.2 bus2=p13ulv78868.1.2 switch=n enabled=y phases=2 Linecode=1P_OH_AL_4/0_Zuzara_2

New Line.l(r:p13udm32405-p13udt7487lv) Units=km Length=0.0140601 bus1=p13udt7487lv.1.2 bus2=p13udm32405.1.2 switch=n enabled=y phases=2 Linecode=1P_OH_AL_2/0_Rucina_2

New Line.l(r:p13udm32407-p13ulv78852) Units=km Length=0.0147596 bus1=p13udm32407.1.2 bus2=p13ulv78852.1.2 switch=n enabled=y phases=2 Linecode=1P_OH_AL_2/0_Rucina_2

New Line.l(r:p13udm32407-p13udt7487lv) Units=km Length=0.027134 bus1=p13udt7487lv.1.2 bus2=p13udm32407.1.2 switch=n enabled=y phases=2 Linecode=1P_OH_AL_4/0_Zuzara_2

New Line.l(r:p13udt7490lv-p13ulv16430) Units=km Length=0.0135862 bus1=p13udt7490lv.1.2 bus2=p13ulv16430.1.2 switch=n enabled=y phases=2 Linecode=1P_OH_AL_2/0_Rucina_2

New Line.l(r:p13udt7490lv-p13ulv16442) Units=km Length=0.0163392 bus1=p13udt7490lv.1.2 bus2=p13ulv16442.1.2 switch=n enabled=y phases=2 Linecode=1P_OH_AL_2/0_Rucina_2_7

New Line.l(r:p13udt7491lv-p13ulv77044) Units=km Length=0.0296071 bus1=p13udt7491lv.1.2 bus2=p13ulv77044.1.2 switch=n enabled=y phases=2 Linecode=1P_OH_AL_4/0_Zuzara_2

New Line.l(r:p13udt7491lv-p13ulv78945) Units=km Length=0.03760090000000001 bus1=p13udt7491lv.1.2 bus2=p13ulv78945.1.2 switch=n enabled=y phases=2 Linecode=1P_OH_AL_4/0_Zuzara_2

New Line.l(r:p13udt7491lv-p13ulv78946) Units=km Length=0.0149976 bus1=p13udt7491lv.1.2 bus2=p13ulv78946.1.2 switch=n enabled=y phases=2 Linecode=1P_OH_AL_2/0_Rucina_2

New Line.l(r:p13udt7491lv-p13ulv78963) Units=km Length=0.010835 bus1=p13udt7491lv.1.2 bus2=p13ulv78963.1.2 switch=n enabled=y phases=2 Linecode=1P_OH_AL_2/0_Rucina_2

New Line.l(r:p13udm32419-p13ulv16431) Units=km Length=0.0157415 bus1=p13udm32419.1.2 bus2=p13ulv16431.1.2 switch=n enabled=y phases=2 Linecode=1P_OH_AL_2/0_Rucina_2

New Line.l(r:p13udm32419-p13ulv77046) Units=km Length=0.0157777 bus1=p13udm32419.1.2 bus2=p13ulv77046.1.2 switch=n enabled=y phases=2 Linecode=1P_OH_AL_2/0_Rucina_2

New Line.l(r:p13udm32419-p13udt7491lv) Units=km Length=0.0193554 bus1=p13udt7491lv.1.2 bus2=p13udm32419.1.2 switch=n enabled=y phases=2 Linecode=1P_OH_AL_2/0_Rucina_2

New Line.l(r:p13udm32422-p13ulv78935) Units=km Length=0.0135383 bus1=p13udm32422.1.2 bus2=p13ulv78935.1.2 switch=n enabled=y phases=2 Linecode=1P_OH_AL_2/0_Rucina_2

New Line.l(r:p13udm32422-p13udt7491lv) Units=km Length=0.0193417 bus1=p13udt7491lv.1.2 bus2=p13udm32422.1.2 switch=n enabled=y phases=2 Linecode=1P_OH_AL_2/0_Rucina_2

New Line.l(r:p13udm32426-p13ulv16432) Units=km Length=0.012753300000000002 bus1=p13udm32426.1.2 bus2=p13ulv16432.1.2 switch=n enabled=y phases=2 Linecode=1P_UG_AL_1/0_Brenau_2

New Line.l(r:p13udm32427-p13ulv77057) Units=km Length=0.011571200000000002 bus1=p13udm32427.1.2 bus2=p13ulv77057.1.2 switch=n enabled=y phases=2 Linecode=1P_UG_AL_1/0_Brenau_2

New Line.l(r:p13udm32426-p13udm32427) Units=km Length=0.00859894 bus1=p13udm32426.1.2 bus2=p13udm32427.1.2 switch=n enabled=y phases=2 Linecode=1P_UG_AL_1/0_Brenau_2

New Line.l(r:p13udm32426-p13udt7492lv) Units=km Length=0.0182958 bus1=p13udt7492lv.1.2 bus2=p13udm32426.1.2 switch=n enabled=y phases=2 Linecode=1P_UG_AL_1/0_Brenau_2

New Line.l(r:p13udm32428-p13ulv78941) Units=km Length=0.0150613 bus1=p13udm32428.1.2 bus2=p13ulv78941.1.2 switch=n enabled=y phases=2 Linecode=1P_UG_AL_4/0_Sweetbriar_2

New Line.l(r:p13udm32428-p13udt7492lv) Units=km Length=0.0387683 bus1=p13udt7492lv.1.2 bus2=p13udm32428.1.2 switch=n enabled=y phases=2 Linecode=1P_UG_AL_4/0_Sweetbriar_2

New Line.l(r:p13udt7493lv-p13ulv16434) Units=km Length=0.0156992 bus1=p13udt7493lv.1.2 bus2=p13ulv16434.1.2 switch=n enabled=y phases=2 Linecode=1P_OH_AL_2/0_Rucina_2

New Line.l(r:p13udt7493lv-p13ulv77099) Units=km Length=0.0168879 bus1=p13udt7493lv.1.2 bus2=p13ulv77099.1.2 switch=n enabled=y phases=2 Linecode=1P_OH_AL_2/0_Rucina_2

New Line.l(r:p13udm32429-p13ulv16433) Units=km Length=0.012488100000000002 bus1=p13udm32429.1.2 bus2=p13ulv16433.1.2 switch=n enabled=y phases=2 Linecode=1P_OH_AL_2/0_Rucina_2

New Line.l(r:p13udm32429-p13ulv77115) Units=km Length=0.0129236 bus1=p13udm32429.1.2 bus2=p13ulv77115.1.2 switch=n enabled=y phases=2 Linecode=1P_OH_AL_2/0_Rucina_2

New Line.l(r:p13udm32429-p13udt7493lv) Units=km Length=0.0193503 bus1=p13udt7493lv.1.2 bus2=p13udm32429.1.2 switch=n enabled=y phases=2 Linecode=1P_OH_AL_2/0_Rucina_2_7

New Line.l(r:p13udt7494lv-p13ulv16437) Units=km Length=0.031905 bus1=p13udt7494lv.1.2 bus2=p13ulv16437.1.2 switch=n enabled=y phases=2 Linecode=1P_UG_AL_1/0_Brenau_2

New Line.l(r:p13udm32433-p13ulv16435) Units=km Length=0.025954600000000005 bus1=p13udm32433.1.2 bus2=p13ulv16435.1.2 switch=n enabled=y phases=2 Linecode=1P_UG_AL_1/0_Brenau_2

New Line.l(r:p13udm32433-p13ulv77039) Units=km Length=0.0147153 bus1=p13udm32433.1.2 bus2=p13ulv77039.1.2 switch=n enabled=y phases=2 Linecode=1P_UG_AL_4/0_Sweetbriar_2

New Line.l(r:p13udm32436-p13ulv77075) Units=km Length=0.0253862 bus1=p13udm32436.1.2 bus2=p13ulv77075.1.2 switch=n enabled=y phases=2 Linecode=1P_UG_AL_1/0_Brenau_2

New Line.l(r:p13udm32433-p13udm32436) Units=km Length=0.008604100000000002 bus1=p13udm32433.1.2 bus2=p13udm32436.1.2 switch=n enabled=y phases=2 Linecode=1P_UG_AL_1/0_Brenau_2

New Line.l(r:p13udm32433-p13udt7494lv) Units=km Length=0.00603421 bus1=p13udt7494lv.1.2 bus2=p13udm32433.1.2 switch=n enabled=y phases=2 Linecode=1P_UG_AL_4/0_Sweetbriar_2

New Line.l(r:p13udm32437-p13ulv77089) Units=km Length=0.0154762 bus1=p13udm32437.1.2 bus2=p13ulv77089.1.2 switch=n enabled=y phases=2 Linecode=1P_UG_AL_1/0_Brenau_2

New Line.l(r:p13udm32437-p13ulv77095) Units=km Length=0.018207 bus1=p13udm32437.1.2 bus2=p13ulv77095.1.2 switch=n enabled=y phases=2 Linecode=1P_UG_AL_2/0_Converse_2

New Line.l(r:p13udm32439-p13ulv77116) Units=km Length=0.0333242 bus1=p13udm32439.1.2 bus2=p13ulv77116.1.2 switch=n enabled=y phases=2 Linecode=1P_UG_AL_1/0_Brenau_2

New Line.l(r:p13udm32437-p13udm32439) Units=km Length=0.00796247 bus1=p13udm32437.1.2 bus2=p13udm32439.1.2 switch=n enabled=y phases=2 Linecode=1P_UG_AL_1/0_Brenau_2

New Line.l(r:p13udm32437-p13udt7494lv) Units=km Length=0.00603421 bus1=p13udt7494lv.1.2 bus2=p13udm32437.1.2 switch=n enabled=y phases=2 Linecode=1P_UG_AL_4/0_Sweetbriar_2

New Line.l(r:p13udt7495lv-p13ulv16436) Units=km Length=0.014989600000000002 bus1=p13udt7495lv.1.2 bus2=p13ulv16436.1.2 switch=n enabled=y phases=2 Linecode=1P_OH_AL_2/0_Rucina_2

New Line.l(r:p13udt7495lv-p13ulv16447) Units=km Length=0.014654 bus1=p13udt7495lv.1.2 bus2=p13ulv16447.1.2 switch=n enabled=y phases=2 Linecode=1P_OH_AL_2/0_Rucina_2

New Line.l(r:p13udt7495lv-p13ulv77111) Units=km Length=0.0340245 bus1=p13udt7495lv.1.2 bus2=p13ulv77111.1.2 switch=n enabled=y phases=2 Linecode=1P_OH_AL_4/0_Zuzara_2

New Line.l(r:p13udt7495lv-p13ulv77128) Units=km Length=0.0155634 bus1=p13udt7495lv.1.2 bus2=p13ulv77128.1.2 switch=n enabled=y phases=2 Linecode=1P_OH_AL_2/0_Rucina_2

New Line.l(r:p13udt7495lv-p13ulv77149) Units=km Length=0.0429428 bus1=p13udt7495lv.1.2 bus2=p13ulv77149.1.2 switch=n enabled=y phases=2 Linecode=1P_OH_AL_4/0_Zuzara_2

New Line.l(r:p13udt7496lv-p13ulv77074) Units=km Length=0.00969501 bus1=p13udt7496lv.1.2 bus2=p13ulv77074.1.2 switch=n enabled=y phases=2 Linecode=1P_UG_AL_1/0_Brenau_2

New Line.l(r:p13udm32446-p13ulv77054) Units=km Length=0.007043560000000001 bus1=p13udm32446.1.2 bus2=p13ulv77054.1.2 switch=n enabled=y phases=2 Linecode=1P_UG_AL_2/0_Converse_2

New Line.l(r:p13udm32448-p13ulv77086) Units=km Length=0.00777032 bus1=p13udm32448.1.2 bus2=p13ulv77086.1.2 switch=n enabled=y phases=2 Linecode=1P_UG_AL_1/0_Brenau_2

New Line.l(r:p13udm32446-p13udm32448) Units=km Length=0.0125566 bus1=p13udm32446.1.2 bus2=p13udm32448.1.2 switch=n enabled=y phases=2 Linecode=1P_UG_AL_1/0_Brenau_2

New Line.l(r:p13udm32446-p13udt7496lv) Units=km Length=0.00512328 bus1=p13udt7496lv.1.2 bus2=p13udm32446.1.2 switch=n enabled=y phases=2 Linecode=1P_UG_AL_4/0_Sweetbriar_2

New Line.l(r:p13udm32449-p13ulv77097) Units=km Length=0.0125035 bus1=p13udm32449.1.2 bus2=p13ulv77097.1.2 switch=n enabled=y phases=2 Linecode=1P_UG_AL_1/0_Brenau_2

New Line.l(r:p13udm32445-p13ulv16438) Units=km Length=0.026206 bus1=p13udm32445.1.2 bus2=p13ulv16438.1.2 switch=n enabled=y phases=2 Linecode=1P_UG_AL_1/0_Brenau_2

New Line.l(r:p13udm32445-p13udm32449) Units=km Length=0.00959739 bus1=p13udm32449.1.2 bus2=p13udm32445.1.2 switch=n enabled=y phases=2 Linecode=1P_UG_AL_1/0_Brenau_2

New Line.l(r:p13udm32449-p13udt7496lv) Units=km Length=0.00959739 bus1=p13udt7496lv.1.2 bus2=p13udm32449.1.2 switch=n enabled=y phases=2 Linecode=1P_UG_AL_4/0_Sweetbriar_2

New Line.l(r:p13udt7497lv-p13ulv16440) Units=km Length=0.0157956 bus1=p13udt7497lv.1.2 bus2=p13ulv16440.1.2 switch=n enabled=y phases=2 Linecode=1P_OH_AL_2/0_Rucina_2

New Line.l(r:p13udt7497lv-p13ulv84102) Units=km Length=0.0344496 bus1=p13udt7497lv.1.2 bus2=p13ulv84102.1.2 switch=n enabled=y phases=2 Linecode=1P_OH_AL_4/0_Zuzara_2

New Line.l(r:p13udt7497lv-p13ulv85747) Units=km Length=0.013531400000000002 bus1=p13udt7497lv.1.2 bus2=p13ulv85747.1.2 switch=n enabled=y phases=2 Linecode=1P_OH_AL_2/0_Rucina_2

New Line.l(r:p13udm32451-p13ulv82190) Units=km Length=0.014513 bus1=p13udm32451.1.2 bus2=p13ulv82190.1.2 switch=n enabled=y phases=2 Linecode=1P_OH_AL_2/0_Rucina_2

New Line.l(r:p13udm32451-p13ulv84113) Units=km Length=0.0325224 bus1=p13udm32451.1.2 bus2=p13ulv84113.1.2 switch=n enabled=y phases=2 Linecode=1P_OH_AL_4/0_Zuzara_2

New Line.l(r:p13udm32451-p13udt7497lv) Units=km Length=0.0180854 bus1=p13udt7497lv.1.2 bus2=p13udm32451.1.2 switch=n enabled=y phases=2 Linecode=1P_OH_AL_2/0_Rucina_2

New Line.l(r:p13udt7499lv-p13ulv16444) Units=km Length=0.041736 bus1=p13udt7499lv.1.2 bus2=p13ulv16444.1.2 switch=n enabled=y phases=2 Linecode=1P_OH_AL_4/0_Zuzara_2

New Line.l(r:p13udt7499lv-p13ulv77061) Units=km Length=0.014878300000000002 bus1=p13udt7499lv.1.2 bus2=p13ulv77061.1.2 switch=n enabled=y phases=2 Linecode=1P_OH_AL_2/0_Rucina_2

New Line.l(r:p13udt7499lv-p13ulv77085) Units=km Length=0.0163128 bus1=p13udt7499lv.1.2 bus2=p13ulv77085.1.2 switch=n enabled=y phases=2 Linecode=1P_OH_AL_2/0_Rucina_2

New Line.l(r:p13udt7499lv-p13ulv77088) Units=km Length=0.0353599 bus1=p13udt7499lv.1.2 bus2=p13ulv77088.1.2 switch=n enabled=y phases=2 Linecode=1P_OH_AL_4/0_Zuzara_2

New Line.l(r:p13udm32457-p13ulv16445) Units=km Length=0.046789 bus1=p13udm32457.1.2 bus2=p13ulv16445.1.2 switch=n enabled=y phases=2 Linecode=1P_OH_AL_4/0_Zuzara_2_1

New Line.l(r:p13udm32457-p13udt7499lv) Units=km Length=0.0193417 bus1=p13udt7499lv.1.2 bus2=p13udm32457.1.2 switch=n enabled=y phases=2 Linecode=1P_OH_AL_2/0_Rucina_2_3

New Line.l(r:p13udt7500lv-p13ulv16446) Units=km Length=0.0130006 bus1=p13udt7500lv.1.2 bus2=p13ulv16446.1.2 switch=n enabled=y phases=2 Linecode=1P_UG_AL_4/0_Sweetbriar_2

New Line.l(r:p13udt7500lv-p13ulv85757) Units=km Length=0.0117349 bus1=p13udt7500lv.1.2 bus2=p13ulv85757.1.2 switch=n enabled=y phases=2 Linecode=1P_UG_AL_1/0_Brenau_2

New Line.l(r:p13udm32463-p13ulv16448) Units=km Length=0.0564905 bus1=p13udm32463.1.2 bus2=p13ulv16448.1.2 switch=n enabled=y phases=2 Linecode=1P_UG_AL_1/0_Brenau_2

New Line.l(r:p13udm32463-p13udt7501lv) Units=km Length=0.019447 bus1=p13udt7501lv.1.2 bus2=p13udm32463.1.2 switch=n enabled=y phases=2 Linecode=1P_UG_AL_1/0_Brenau_2

New Line.l(r:p13udm32464-p13ulv77107) Units=km Length=0.013234900000000003 bus1=p13udm32464.1.2 bus2=p13ulv77107.1.2 switch=n enabled=y phases=2 Linecode=1P_UG_AL_4/0_Sweetbriar_2

New Line.l(r:p13udm32464-p13udt7501lv) Units=km Length=0.0097279 bus1=p13udt7501lv.1.2 bus2=p13udm32464.1.2 switch=n enabled=y phases=2 Linecode=1P_UG_AL_4/0_Sweetbriar_2

New Line.l(r:p13udt7502lv-p13ulv16458) Units=km Length=0.0133136 bus1=p13udt7502lv.1.2 bus2=p13ulv16458.1.2 switch=n enabled=y phases=2 Linecode=1P_UG_AL_1/0_Brenau_2

New Line.l(r:p13udt7502lv-p13ulv77169) Units=km Length=0.015337700000000001 bus1=p13udt7502lv.1.2 bus2=p13ulv77169.1.2 switch=n enabled=y phases=2 Linecode=1P_UG_AL_1/0_Brenau_2

New Line.l(r:p13udm32465-p13ulv16449) Units=km Length=0.026870600000000005 bus1=p13udm32465.1.2 bus2=p13ulv16449.1.2 switch=n enabled=y phases=2 Linecode=1P_UG_AL_2/0_Converse_2

New Line.l(r:p13udm32465-p13udt7502lv) Units=km Length=0.00973268 bus1=p13udt7502lv.1.2 bus2=p13udm32465.1.2 switch=n enabled=y phases=2 Linecode=1P_UG_AL_2/0_Converse_2

New Line.l(r:p13udt7503lv-p13ulv16450) Units=km Length=0.0149389 bus1=p13udt7503lv.1.2 bus2=p13ulv16450.1.2 switch=n enabled=y phases=2 Linecode=1P_OH_AL_2/0_Rucina_2

New Line.l(r:p13udt7503lv-p13ulv77144) Units=km Length=0.014449200000000002 bus1=p13udt7503lv.1.2 bus2=p13ulv77144.1.2 switch=n enabled=y phases=2 Linecode=1P_OH_AL_2/0_Rucina_2

New Line.l(r:p13udt7503lv-p13ulv77174) Units=km Length=0.0536081 bus1=p13udt7503lv.1.2 bus2=p13ulv77174.1.2 switch=n enabled=y phases=2 Linecode=1P_OH_AL_4/0_Zuzara_2

New Line.l(r:p13udm32469-p13ulv16451) Units=km Length=0.014025400000000002 bus1=p13udm32469.1.2 bus2=p13ulv16451.1.2 switch=n enabled=y phases=2 Linecode=1P_OH_AL_2/0_Rucina_2

New Line.l(r:p13udm32469-p13ulv77126) Units=km Length=0.0158954 bus1=p13udm32469.1.2 bus2=p13ulv77126.1.2 switch=n enabled=y phases=2 Linecode=1P_OH_AL_2/0_Rucina_2

New Line.l(r:p13udm32469-p13udt7503lv) Units=km Length=0.0193417 bus1=p13udt7503lv.1.2 bus2=p13udm32469.1.2 switch=n enabled=y phases=2 Linecode=1P_OH_AL_2/0_Rucina_2

New Line.l(r:p13udt7504lv-p13ulv16462) Units=km Length=0.012108 bus1=p13udt7504lv.1.2 bus2=p13ulv16462.1.2 switch=n enabled=y phases=2 Linecode=1P_UG_AL_1/0_Brenau_2

New Line.l(r:p13udt7504lv-p13ulv75337) Units=km Length=0.0302674 bus1=p13udt7504lv.1.2 bus2=p13ulv75337.1.2 switch=n enabled=y phases=2 Linecode=1P_UG_AL_1/0_Brenau_2

New Line.l(r:p13udt7504lv-p13ulv77207) Units=km Length=0.0140291 bus1=p13udt7504lv.1.2 bus2=p13ulv77207.1.2 switch=n enabled=y phases=2 Linecode=1P_UG_AL_1/0_Brenau_2

New Line.l(r:p13udm32475-p13ulv75329) Units=km Length=0.0109158 bus1=p13udm32475.1.2 bus2=p13ulv75329.1.2 switch=n enabled=y phases=2 Linecode=1P_UG_AL_1/0_Brenau_2

New Line.l(r:p13udm32475-p13ulv77213) Units=km Length=0.0129398 bus1=p13udm32475.1.2 bus2=p13ulv77213.1.2 switch=n enabled=y phases=2 Linecode=1P_UG_AL_1/0_Brenau_2

New Line.l(r:p13udm32475-p13udt7504lv) Units=km Length=0.00977037 bus1=p13udt7504lv.1.2 bus2=p13udm32475.1.2 switch=n enabled=y phases=2 Linecode=1P_UG_AL_1/0_Brenau_2

New Line.l(r:p13udm32479-p13ulv77223) Units=km Length=0.00826956 bus1=p13udm32479.1.2 bus2=p13ulv77223.1.2 switch=n enabled=y phases=2 Linecode=1P_UG_AL_1/0_Brenau_2

New Line.l(r:p13udm32473-p13ulv16452) Units=km Length=0.00723084 bus1=p13udm32473.1.2 bus2=p13ulv16452.1.2 switch=n enabled=y phases=2 Linecode=1P_UG_AL_1/0_Brenau_2

New Line.l(r:p13udm32473-p13udm32479) Units=km Length=0.009761660000000002 bus1=p13udm32479.1.2 bus2=p13udm32473.1.2 switch=n enabled=y phases=2 Linecode=1P_UG_AL_1/0_Brenau_2

New Line.l(r:p13udm32479-p13udt7504lv) Units=km Length=0.009761660000000002 bus1=p13udt7504lv.1.2 bus2=p13udm32479.1.2 switch=n enabled=y phases=2 Linecode=1P_UG_AL_4/0_Sweetbriar_2

New Line.l(r:p13udt7505lv-p13ulv75352) Units=km Length=0.0107002 bus1=p13udt7505lv.1.2 bus2=p13ulv75352.1.2 switch=n enabled=y phases=2 Linecode=1P_UG_AL_1/0_Brenau_2

New Line.l(r:p13udt7505lv-p13ulv77238) Units=km Length=0.011477900000000001 bus1=p13udt7505lv.1.2 bus2=p13ulv77238.1.2 switch=n enabled=y phases=2 Linecode=1P_UG_AL_1/0_Brenau_2

New Line.l(r:p13udm32481-p13ulv16454) Units=km Length=0.0104783 bus1=p13udm32481.1.2 bus2=p13ulv16454.1.2 switch=n enabled=y phases=2 Linecode=1P_UG_AL_1/0_Brenau_2

New Line.l(r:p13udm32481-p13ulv75348) Units=km Length=0.0108743 bus1=p13udm32481.1.2 bus2=p13ulv75348.1.2 switch=n enabled=y phases=2 Linecode=1P_UG_AL_1/0_Brenau_2

New Line.l(r:p13udm32480-p13ulv16453) Units=km Length=0.009946080000000001 bus1=p13udm32480.1.2 bus2=p13ulv16453.1.2 switch=n enabled=y phases=2 Linecode=1P_UG_AL_1/0_Brenau_2

New Line.l(r:p13udm32483-p13ulv75336) Units=km Length=0.00985467 bus1=p13udm32483.1.2 bus2=p13ulv75336.1.2 switch=n enabled=y phases=2 Linecode=1P_UG_AL_1/0_Brenau_2

New Line.l(r:p13udm32483-p13ulv77190) Units=km Length=0.0395372 bus1=p13udm32483.1.2 bus2=p13ulv77190.1.2 switch=n enabled=y phases=2 Linecode=1P_UG_AL_1/0_Brenau_2

New Line.l(r:p13udm32480-p13udm32483) Units=km Length=0.00977037 bus1=p13udm32480.1.2 bus2=p13udm32483.1.2 switch=n enabled=y phases=2 Linecode=1P_UG_AL_2/0_Converse_2

New Line.l(r:p13udm32480-p13udm32481) Units=km Length=0.009761660000000002 bus1=p13udm32481.1.2 bus2=p13udm32480.1.2 switch=n enabled=y phases=2 Linecode=1P_UG_AL_4/0_Sweetbriar_2

New Line.l(r:p13udm32481-p13udt7505lv) Units=km Length=0.009761660000000002 bus1=p13udt7505lv.1.2 bus2=p13udm32481.1.2 switch=n enabled=y phases=2 Linecode=1P_UG_AL_4/0_Sweetbriar_2

New Line.l(r:p13udm32486-p13ulv75367) Units=km Length=0.010743 bus1=p13udm32486.1.2 bus2=p13ulv75367.1.2 switch=n enabled=y phases=2 Linecode=1P_UG_AL_1/0_Brenau_2

New Line.l(r:p13udm32482-p13ulv16460) Units=km Length=0.0110562 bus1=p13udm32482.1.2 bus2=p13ulv16460.1.2 switch=n enabled=y phases=2 Linecode=1P_UG_AL_1/0_Brenau_2

New Line.l(r:p13udm32482-p13udm32486) Units=km Length=0.0579214 bus1=p13udm32486.1.2 bus2=p13udm32482.1.2 switch=n enabled=y phases=2 Linecode=1P_UG_AL_1/0_Brenau_2

New Line.l(r:p13udm32486-p13udt7505lv) Units=km Length=0.00977037 bus1=p13udt7505lv.1.2 bus2=p13udm32486.1.2 switch=n enabled=y phases=2 Linecode=1P_UG_AL_1/0_Brenau_2

New Line.l(r:p13udt7506lv-p13ulv75381) Units=km Length=0.0113157 bus1=p13udt7506lv.1.2 bus2=p13ulv75381.1.2 switch=n enabled=y phases=2 Linecode=1P_UG_AL_1/0_Brenau_2

New Line.l(r:p13udt7506lv-p13ulv75403) Units=km Length=0.0320041 bus1=p13udt7506lv.1.2 bus2=p13ulv75403.1.2 switch=n enabled=y phases=2 Linecode=1P_UG_AL_1/0_Brenau_2

New Line.l(r:p13udm32489-p13ulv16455) Units=km Length=0.0113778 bus1=p13udm32489.1.2 bus2=p13ulv16455.1.2 switch=n enabled=y phases=2 Linecode=1P_UG_AL_4/0_Sweetbriar_2

New Line.l(r:p13udm32489-p13ulv75372) Units=km Length=0.0113814 bus1=p13udm32489.1.2 bus2=p13ulv75372.1.2 switch=n enabled=y phases=2 Linecode=1P_UG_AL_1/0_Brenau_2

New Line.l(r:p13udm32489-p13ulv75391) Units=km Length=0.0280982 bus1=p13udm32489.1.2 bus2=p13ulv75391.1.2 switch=n enabled=y phases=2 Linecode=1P_UG_AL_1/0_Brenau_2

New Line.l(r:p13udm32489-p13udt7506lv) Units=km Length=0.00977037 bus1=p13udt7506lv.1.2 bus2=p13udm32489.1.2 switch=n enabled=y phases=2 Linecode=1P_UG_AL_4/0_Sweetbriar_2

New Line.l(r:p13udm32492-p13ulv75389) Units=km Length=0.00808541 bus1=p13udm32492.1.2 bus2=p13ulv75389.1.2 switch=n enabled=y phases=2 Linecode=1P_UG_AL_1/0_Brenau_2

New Line.l(r:p13udm32494-p13ulv75394) Units=km Length=0.00849243 bus1=p13udm32494.1.2 bus2=p13ulv75394.1.2 switch=n enabled=y phases=2 Linecode=1P_UG_AL_1/0_Brenau_2

New Line.l(r:p13udm32492-p13udm32494) Units=km Length=0.019079 bus1=p13udm32492.1.2 bus2=p13udm32494.1.2 switch=n enabled=y phases=2 Linecode=1P_UG_AL_1/0_Brenau_2

New Line.l(r:p13udm32492-p13udt7506lv) Units=km Length=0.0193104 bus1=p13udt7506lv.1.2 bus2=p13udm32492.1.2 switch=n enabled=y phases=2 Linecode=1P_UG_AL_1/0_Brenau_2

New Line.l(r:p13udt7507lv-p13ulv16456) Units=km Length=0.0147679 bus1=p13udt7507lv.1.2 bus2=p13ulv16456.1.2 switch=n enabled=y phases=2 Linecode=1P_UG_AL_4/0_Sweetbriar_2

New Line.l(r:p13udm32497-p13ulv75346) Units=km Length=0.00769411 bus1=p13udm32497.1.2 bus2=p13ulv75346.1.2 switch=n enabled=y phases=2 Linecode=1P_UG_AL_1/0_Brenau_2

New Line.l(r:p13udm32497-p13udt7507lv) Units=km Length=0.00940824 bus1=p13udt7507lv.1.2 bus2=p13udm32497.1.2 switch=n enabled=y phases=2 Linecode=1P_UG_AL_1/0_Brenau_2

New Line.l(r:p13udt7508lv-p13ulv77229) Units=km Length=0.00926987 bus1=p13udt7508lv.1.2 bus2=p13ulv77229.1.2 switch=n enabled=y phases=2 Linecode=1P_UG_AL_1/0_Brenau_2

New Line.l(r:p13udm32498-p13ulv16457) Units=km Length=0.00857424 bus1=p13udm32498.1.2 bus2=p13ulv16457.1.2 switch=n enabled=y phases=2 Linecode=1P_UG_AL_1/0_Brenau_2

New Line.l(r:p13udm32498-p13ulv16459) Units=km Length=0.0106421 bus1=p13udm32498.1.2 bus2=p13ulv16459.1.2 switch=n enabled=y phases=2 Linecode=1P_UG_AL_1/0_Brenau_2

New Line.l(r:p13udm32498-p13udt7508lv) Units=km Length=0.0184558 bus1=p13udt7508lv.1.2 bus2=p13udm32498.1.2 switch=n enabled=y phases=2 Linecode=1P_UG_AL_4/0_Sweetbriar_2

New Line.l(r:p13udm32500-p13ulv77195) Units=km Length=0.0141752 bus1=p13udm32500.1.2 bus2=p13ulv77195.1.2 switch=n enabled=y phases=2 Linecode=1P_UG_AL_4/0_Sweetbriar_2

New Line.l(r:p13udm32502-p13ulv77246) Units=km Length=0.010227100000000001 bus1=p13udm32502.1.2 bus2=p13ulv77246.1.2 switch=n enabled=y phases=2 Linecode=1P_UG_AL_1/0_Brenau_2

New Line.l(r:p13udm32500-p13udm32502) Units=km Length=0.00940824 bus1=p13udm32500.1.2 bus2=p13udm32502.1.2 switch=n enabled=y phases=2 Linecode=1P_UG_AL_1/0_Brenau_2

New Line.l(r:p13udm32500-p13udt7508lv) Units=km Length=0.0186317 bus1=p13udt7508lv.1.2 bus2=p13udm32500.1.2 switch=n enabled=y phases=2 Linecode=1P_UG_AL_4/0_Sweetbriar_2

New Line.l(r:p13udt7509lv-p13ulv75374) Units=km Length=0.0119898 bus1=p13udt7509lv.1.2 bus2=p13ulv75374.1.2 switch=n enabled=y phases=2 Linecode=1P_UG_AL_1/0_Brenau_2

New Line.l(r:p13udt7509lv-p13ulv75416) Units=km Length=0.0104072 bus1=p13udt7509lv.1.2 bus2=p13ulv75416.1.2 switch=n enabled=y phases=2 Linecode=1P_UG_AL_1/0_Brenau_2

New Line.l(r:p13udm32503-p13ulv16461) Units=km Length=0.00967785 bus1=p13udm32503.1.2 bus2=p13ulv16461.1.2 switch=n enabled=y phases=2 Linecode=1P_UG_AL_1/0_Brenau_2

New Line.l(r:p13udm32503-p13ulv75409) Units=km Length=0.0109182 bus1=p13udm32503.1.2 bus2=p13ulv75409.1.2 switch=n enabled=y phases=2 Linecode=1P_UG_AL_1/0_Brenau_2

New Line.l(r:p13udm32503-p13udt7509lv) Units=km Length=0.00954386 bus1=p13udt7509lv.1.2 bus2=p13udm32503.1.2 switch=n enabled=y phases=2 Linecode=1P_UG_AL_2/0_Converse_2

New Line.l(r:p13udm32505-p13ulv75382) Units=km Length=0.012433 bus1=p13udm32505.1.2 bus2=p13ulv75382.1.2 switch=n enabled=y phases=2 Linecode=1P_UG_AL_1/0_Brenau_2

New Line.l(r:p13udm32505-p13ulv75423) Units=km Length=0.0106206 bus1=p13udm32505.1.2 bus2=p13ulv75423.1.2 switch=n enabled=y phases=2 Linecode=1P_UG_AL_1/0_Brenau_2

New Line.l(r:p13udm32505-p13udt7509lv) Units=km Length=0.00953999 bus1=p13udt7509lv.1.2 bus2=p13udm32505.1.2 switch=n enabled=y phases=2 Linecode=1P_UG_AL_2/0_Converse_2

New Line.l(r:p13udt7510lv-p13ulv75451) Units=km Length=0.0144113 bus1=p13udt7510lv.1.2 bus2=p13ulv75451.1.2 switch=n enabled=y phases=2 Linecode=1P_UG_AL_1/0_Brenau_2

New Line.l(r:p13udm32509-p13ulv16465) Units=km Length=0.0143563 bus1=p13udm32509.1.2 bus2=p13ulv16465.1.2 switch=n enabled=y phases=2 Linecode=1P_UG_AL_1/0_Brenau_2

New Line.l(r:p13udm32509-p13udt7510lv) Units=km Length=0.00984996 bus1=p13udt7510lv.1.2 bus2=p13udm32509.1.2 switch=n enabled=y phases=2 Linecode=1P_UG_AL_1/0_Brenau_2

New Line.l(r:p13udm32510-p13ulv75428) Units=km Length=0.0124323 bus1=p13udm32510.1.2 bus2=p13ulv75428.1.2 switch=n enabled=y phases=2 Linecode=1P_UG_AL_2/0_Converse_2

New Line.l(r:p13udm32510-p13ulv75479) Units=km Length=0.0128173 bus1=p13udm32510.1.2 bus2=p13ulv75479.1.2 switch=n enabled=y phases=2 Linecode=1P_UG_AL_4/0_Sweetbriar_2

New Line.l(r:p13udm32510-p13ulv75491) Units=km Length=0.020849 bus1=p13udm32510.1.2 bus2=p13ulv75491.1.2 switch=n enabled=y phases=2 Linecode=1P_UG_AL_1/0_Brenau_2

New Line.l(r:p13udm32510-p13udt7510lv) Units=km Length=0.009855 bus1=p13udt7510lv.1.2 bus2=p13udm32510.1.2 switch=n enabled=y phases=2 Linecode=1P_UG_AL_4/0_Sweetbriar_2

New Line.l(r:p13udt7511lv-p13ulv16466) Units=km Length=0.0145631 bus1=p13udt7511lv.1.2 bus2=p13ulv16466.1.2 switch=n enabled=y phases=2 Linecode=1P_UG_AL_1/0_Brenau_2

New Line.l(r:p13udt7511lv-p13ulv87325) Units=km Length=0.0128775 bus1=p13udt7511lv.1.2 bus2=p13ulv87325.1.2 switch=n enabled=y phases=2 Linecode=1P_UG_AL_1/0_Brenau_2

New Line.l(r:p13udt7511lv-p13ulv87339) Units=km Length=0.0335901 bus1=p13udt7511lv.1.2 bus2=p13ulv87339.1.2 switch=n enabled=y phases=2 Linecode=1P_UG_AL_1/0_Brenau_2

New Line.l(r:p13udm32515-p13ulv16467) Units=km Length=0.0137372 bus1=p13udm32515.1.2 bus2=p13ulv16467.1.2 switch=n enabled=y phases=2 Linecode=1P_UG_AL_1/0_Brenau_2

New Line.l(r:p13udm32515-p13ulv87354) Units=km Length=0.03891750000000001 bus1=p13udm32515.1.2 bus2=p13ulv87354.1.2 switch=n enabled=y phases=2 Linecode=1P_UG_AL_1/0_Brenau_2

...