voltage-tiling/data/p13u_violations/p13uhs21_1247--p13udt10447/Loads.dss
New Load.load_p13ulv3855_1 conn=wye bus1=p13ulv3855.1 kV=0.12 Vminpu=0.8 Vmaxpu=1.2 model=1 kW=5.454982521291287 kvar=1.3947139746694095 Phases=1 yearly=res_kw_2822_pu

New Load.load_p13ulv3855_2 conn=wye bus1=p13ulv3855.2 kV=0.12 Vminpu=0.8 Vmaxpu=1.2 model=1 kW=5.454982521291287 kvar=1.3947139746694095 Phases=1 yearly=res_kw_2822_pu

New Load.load_p13ulv3856_1 conn=wye bus1=p13ulv3856.1 kV=0.12 Vminpu=0.8 Vmaxpu=1.2 model=1 kW=4.402913026363639 kvar=0.26775034151900284 Phases=1 yearly=com_kw_17318_pu

New Load.load_p13ulv3856_2 conn=wye bus1=p13ulv3856.2 kV=0.12 Vminpu=0.8 Vmaxpu=1.2 model=1 kW=4.402913026363639 kvar=0.26775034151900284 Phases=1 yearly=com_kw_17318_pu

New Load.load_p13ulv3857_1 conn=wye bus1=p13ulv3857.1 kV=0.12 Vminpu=0.8 Vmaxpu=1.2 model=1 kW=4.237064396976419 kvar=0.25029256707639685 Phases=1 yearly=com_kw_1949_pu

New Load.load_p13ulv3857_2 conn=wye bus1=p13ulv3857.2 kV=0.12 Vminpu=0.8 Vmaxpu=1.2 model=1 kW=4.237064396976419 kvar=0.25029256707639685 Phases=1 yearly=com_kw_1949_pu

New Load.load_p13ulv3858_1 conn=wye bus1=p13ulv3857.1 kV=0.12 Vminpu=0.8 Vmaxpu=1.2 model=1 kW=4.282147356749706 kvar=1.098326139423759 Phases=1 yearly=res_kw_12468_pu

New Load.load_p13ulv3858_2 conn=wye bus1=p13ulv3857.2 kV=0.12 Vminpu=0.8 Vmaxpu=1.2 model=1 kW=4.282147356749706 kvar=1.098326139423759 Phases=1 yearly=res_kw_12468_pu

New Load.load_p13ulv3859_1 conn=wye bus1=p13ulv3859.1 kV=0.12 Vminpu=0.8 Vmaxpu=1.2 model=1 kW=7.078780453416107 kvar=1.8174348568036047 Phases=1 yearly=res_kw_3446_pu

New Load.load_p13ulv3859_2 conn=wye bus1=p13ulv3859.2 kV=0.12 Vminpu=0.8 Vmaxpu=1.2 model=1 kW=7.078780453416107 kvar=1.8174348568036047 Phases=1 yearly=res_kw_3446_pu

New Load.load_p13ulv3860_1 conn=wye bus1=p13ulv3860.1 kV=0.12 Vminpu=0.8 Vmaxpu=1.2 model=1 kW=11.199225111694867 kvar=0.4981559448476882 Phases=1 yearly=res_kw_11839_pu

New Load.load_p13ulv3860_2 conn=wye bus1=p13ulv3860.2 kV=0.12 Vminpu=0.8 Vmaxpu=1.2 model=1 kW=11.199225111694867 kvar=0.4981559448476882 Phases=1 yearly=res_kw_11839_pu

New Load.load_p13ulv3861_1 conn=wye bus1=p13ulv3861.1 kV=0.12 Vminpu=0.8 Vmaxpu=1.2 model=1 kW=5.61950712613045 kvar=0.5380510729366107 Phases=1 yearly=res_kw_14016_pu

New Load.load_p13ulv3861_2 conn=wye bus1=p13ulv3861.2 kV=0.12 Vminpu=0.8 Vmaxpu=1.2 model=1 kW=5.61950712613045 kvar=0.5380510729366107 Phases=1 yearly=res_kw_14016_pu

New Load.load_p13ulv3862_1 conn=wye bus1=p13ulv3862.1 kV=0.12 Vminpu=0.8 Vmaxpu=1.2 model=1 kW=3.4477550901029463 kvar=0.48537613816094066 Phases=1 yearly=res_kw_8004_pu

New Load.load_p13ulv3862_2 conn=wye bus1=p13ulv3862.2 kV=0.12 Vminpu=0.8 Vmaxpu=1.2 model=1 kW=3.4477550901029463 kvar=0.48537613816094066 Phases=1 yearly=res_kw_8004_pu

New Load.load_p13ulv3863_1 conn=wye bus1=p13ulv3863.1 kV=0.12 Vminpu=0.8 Vmaxpu=1.2 model=1 kW=2.6687584097416917 kvar=0.2644243787085743 Phases=1 yearly=res_kw_4011_pu

New Load.load_p13ulv3863_2 conn=wye bus1=p13ulv3863.2 kV=0.12 Vminpu=0.8 Vmaxpu=1.2 model=1 kW=2.6687584097416917 kvar=0.2644243787085743 Phases=1 yearly=res_kw_4011_pu

New Load.load_p13ulv3864_1 conn=wye bus1=p13ulv3863.1 kV=0.12 Vminpu=0.8 Vmaxpu=1.2 model=1 kW=1.8996795095038266 kvar=0.7128004517365247 Phases=1 yearly=res_kw_3977_pu

New Load.load_p13ulv3864_2 conn=wye bus1=p13ulv3863.2 kV=0.12 Vminpu=0.8 Vmaxpu=1.2 model=1 kW=1.8996795095038266 kvar=0.7128004517365247 Phases=1 yearly=res_kw_3977_pu

New Load.load_p13ulv3865 conn=wye bus1=p13ulv3865.1.2.3 kV=0.48 Vminpu=0.8 Vmaxpu=1.2 model=1 kW=31.212739288506913 kvar=12.281673801405278 Phases=3 yearly=res_kw_9111_pu

New Load.load_p13ulv3867_1 conn=wye bus1=p13ulv3867.1 kV=0.12 Vminpu=0.8 Vmaxpu=1.2 model=1 kW=2.721419811770519 kvar=1.3087226829300433 Phases=1 yearly=res_kw_4402_pu

New Load.load_p13ulv3867_2 conn=wye bus1=p13ulv3867.2 kV=0.12 Vminpu=0.8 Vmaxpu=1.2 model=1 kW=2.721419811770519 kvar=1.3087226829300433 Phases=1 yearly=res_kw_4402_pu

New Load.load_p13ulv3868_1 conn=wye bus1=p13ulv3868.1 kV=0.12 Vminpu=0.8 Vmaxpu=1.2 model=1 kW=7.636775182325674 kvar=0.19439068500448672 Phases=1 yearly=res_kw_1430_pu

New Load.load_p13ulv3868_2 conn=wye bus1=p13ulv3868.2 kV=0.12 Vminpu=0.8 Vmaxpu=1.2 model=1 kW=7.636775182325674 kvar=0.19439068500448672 Phases=1 yearly=res_kw_1430_pu

New Load.load_p13ulv3869_1 conn=wye bus1=p13ulv3869.1 kV=0.12 Vminpu=0.8 Vmaxpu=1.2 model=1 kW=5.874756128327537 kvar=1.3966420189571396 Phases=1 yearly=res_kw_5231_pu

New Load.load_p13ulv3869_2 conn=wye bus1=p13ulv3869.2 kV=0.12 Vminpu=0.8 Vmaxpu=1.2 model=1 kW=5.874756128327537 kvar=1.3966420189571396 Phases=1 yearly=res_kw_5231_pu

New Load.load_p13ulv3872_1 conn=wye bus1=p13ulv3872.1 kV=0.12 Vminpu=0.8 Vmaxpu=1.2 model=1 kW=9.14404996525599 kvar=0.8035022294041726 Phases=1 yearly=res_kw_13723_pu

New Load.load_p13ulv3872_2 conn=wye bus1=p13ulv3872.2 kV=0.12 Vminpu=0.8 Vmaxpu=1.2 model=1 kW=9.14404996525599 kvar=0.8035022294041726 Phases=1 yearly=res_kw_13723_pu

...